power-feeders/Taxonomy_feeders/R4_1247_1_t6.glm
//Input feeder information for Taxonomy Feeders with different cases.
//Started on 10/21/09. This version created 25-Feb-2019 18:35:20.
// This version was created to perform FY11 Department of Energy
// analysis on the benefits of the SGIG grant projects.

clock {
     timezone CST+6CDT;
     starttime '2009-01-01 00:00:00';
     stoptime '2010-01-02 00:00:00';
}

#include "appliance_schedules.glm";
#include "water_and_setpoint_schedule_v5.glm";
#include "commercial_schedules.glm";
#include "daily_elasticity_schedules.glm";
//#define stylesheet=http://gridlab-d.svn.sourceforge.net/viewvc/gridlab-d/trunk/core/gridlabd-2_0
#set minimum_timestep=60;
#set profiler=1;
#set relax_naming_rules=1;

module tape;
module climate;
module residential {
     implicit_enduses NONE;
};
module powerflow {
     solver_method NR;
     NR_iteration_limit 50;
};

class player {
     double value;
};

module market;

class auction {
     double my_avg;
     double my_std;
};

object player {
     name CPP_days_R4;
     file CPP_days_R4.player;
};

object auction {
     name Market_1;
     period 900;
     special_mode BUYERS_ONLY;
     unit kW;
     my_avg 0.079804;
     my_std 0.027270;
     object player {
          file R4_1247_1_t0_TOU.player;
          loop 10;
          property current_market.clearing_price;
     };
}

object climate {
     name "TN-Nashville";
     tmyfile "TN-Nashville.tmy2";
     interpolate QUADRATIC;
};

//Configurations

object regulator_configuration {     
      name regulator_configuration_3887;     
      name feeder_reg_cfg;     
      Control OUTPUT_VOLTAGE;     
      band_center 8300.0;     
      band_width 133;     
      connect_type WYE_WYE;     
      time_delay 30;     
      raise_taps 16;     
      lower_taps 16;     
      regulation 0.10;     
      tap_pos_A 0;     
      tap_pos_B 0;     
      tap_pos_C 0;     
}       

object line_configuration {     
      name line_configuration_21;     
      conductor_B overhead_line_conductor_2;     
      conductor_N overhead_line_conductor_2;     
      spacing line_spacing_8;     
}       

object line_configuration {     
      name line_configuration_22;     
      conductor_C overhead_line_conductor_2;     
      conductor_N overhead_line_conductor_2;     
      spacing line_spacing_9;     
}       

object line_configuration {     
      name line_configuration_23;     
      conductor_A overhead_line_conductor_3;     
      conductor_B overhead_line_conductor_3;     
      conductor_C overhead_line_conductor_3;     
      conductor_N overhead_line_conductor_3;     
      spacing line_spacing_10;     
}       

object line_configuration {     
      name line_configuration_24;     
      conductor_A overhead_line_conductor_3;     
      conductor_B overhead_line_conductor_3;     
      conductor_C overhead_line_conductor_3;     
      conductor_N overhead_line_conductor_3;     
      spacing line_spacing_10;     
}       

object line_configuration {     
      name line_configuration_25;     
      conductor_A overhead_line_conductor_4;     
      conductor_B overhead_line_conductor_4;     
      conductor_C overhead_line_conductor_4;     
      conductor_N overhead_line_conductor_4;     
      spacing line_spacing_10;     
}       

object line_configuration {     
      name line_configuration_26;     
      conductor_A overhead_line_conductor_5;     
      conductor_B overhead_line_conductor_5;     
      conductor_C overhead_line_conductor_5;     
      conductor_N overhead_line_conductor_5;     
      spacing line_spacing_10;     
}       

object line_configuration {     
      name line_configuration_27;     
      conductor_A overhead_line_conductor_5;     
      conductor_B overhead_line_conductor_5;     
      conductor_C overhead_line_conductor_5;     
      conductor_N overhead_line_conductor_5;     
      spacing line_spacing_10;     
}       

object line_configuration {     
      name line_configuration_28;     
      conductor_A overhead_line_conductor_2;     
      conductor_N overhead_line_conductor_2;     
      spacing line_spacing_11;     
}       

object line_configuration {     
      name line_configuration_29;     
      conductor_A overhead_line_conductor_3;     
      conductor_C overhead_line_conductor_3;     
      conductor_N overhead_line_conductor_3;     
      spacing line_spacing_12;     
}       

object line_configuration {     
      name line_configuration_30;     
      conductor_A overhead_line_conductor_6;     
      conductor_B overhead_line_conductor_6;     
      conductor_C overhead_line_conductor_6;     
      conductor_N overhead_line_conductor_6;     
      spacing line_spacing_10;     
}       

object line_configuration {     
      name line_configuration_31;     
      conductor_A overhead_line_conductor_2;     
      conductor_B overhead_line_conductor_2;     
      conductor_N overhead_line_conductor_2;     
      spacing line_spacing_13;     
}       

object line_configuration {     
      name line_configuration_32;     
      conductor_A overhead_line_conductor_2;     
      conductor_B overhead_line_conductor_2;     
      conductor_C overhead_line_conductor_2;     
      conductor_N overhead_line_conductor_2;     
      spacing line_spacing_10;     
}       

object line_configuration {     
      name line_configuration_33;     
      conductor_A overhead_line_conductor_2;     
      conductor_C overhead_line_conductor_2;     
      conductor_N overhead_line_conductor_2;     
      spacing line_spacing_12;     
}       

object line_configuration {     
      name line_configuration_34;     
      conductor_A underground_line_conductor_7;     
      conductor_N underground_line_conductor_7;     
      spacing line_spacing_14;     
}       

object line_configuration {     
      name line_configuration_35;     
      conductor_B overhead_line_conductor_2;     
      conductor_C overhead_line_conductor_2;     
      conductor_N overhead_line_conductor_2;     
      spacing line_spacing_15;     
}       

object line_configuration {     
      name line_configuration_36;     
      conductor_C underground_line_conductor_7;     
      conductor_N underground_line_conductor_7;     
      spacing line_spacing_16;     
}       

object line_configuration {     
      name line_configuration_37;     
      conductor_B underground_line_conductor_7;     
      conductor_N underground_line_conductor_7;     
      spacing line_spacing_17;     
}       

object line_configuration {     
      name line_configuration_38;     
      conductor_B overhead_line_conductor_3;     
      conductor_N overhead_line_conductor_3;     
      spacing line_spacing_8;     
}       

object line_configuration {     
      name line_configuration_39;     
      conductor_C overhead_line_conductor_3;     
      conductor_N overhead_line_conductor_3;     
      spacing line_spacing_9;     
}       

object line_configuration {     
      name line_configuration_40;     
      conductor_A overhead_line_conductor_4;     
      conductor_B overhead_line_conductor_4;     
      conductor_C overhead_line_conductor_4;     
      conductor_N overhead_line_conductor_4;     
      spacing line_spacing_10;     
}       

object line_configuration {     
      name line_configuration_41;     
      conductor_A overhead_line_conductor_3;     
      conductor_B overhead_line_conductor_3;     
      conductor_N overhead_line_conductor_3;     
      spacing line_spacing_13;     
}       

object line_configuration {     
      name line_configuration_42;     
      conductor_A overhead_line_conductor_2;     
      conductor_N overhead_line_conductor_2;     
      spacing line_spacing_11;     
}       

object line_configuration {     
      name line_configuration_43;     
      conductor_B overhead_line_conductor_2;     
      conductor_C overhead_line_conductor_2;     
      conductor_N overhead_line_conductor_2;     
      spacing line_spacing_18;     
}       

object line_configuration {     
      name line_configuration_44;     
      conductor_A overhead_line_conductor_2;     
      conductor_B overhead_line_conductor_2;     
      conductor_C overhead_line_conductor_2;     
      conductor_N overhead_line_conductor_2;     
      spacing line_spacing_10;     
}       

object line_configuration {     
      name line_configuration_45;     
      conductor_C overhead_line_conductor_2;     
      conductor_N overhead_line_conductor_2;     
      spacing line_spacing_9;     
}       

object line_configuration {     
      name line_configuration_46;     
      conductor_A overhead_line_conductor_3;     
      conductor_N overhead_line_conductor_3;     
      spacing line_spacing_11;     
}       

object line_configuration {     
      name line_configuration_47;     
      conductor_A underground_line_conductor_7;     
      conductor_B underground_line_conductor_7;     
      conductor_C underground_line_conductor_7;     
      conductor_N underground_line_conductor_7;     
      spacing line_spacing_19;     
}       

object line_configuration {     
      name line_configuration_48;     
      conductor_A overhead_line_conductor_3;     
      conductor_B overhead_line_conductor_3;     
      conductor_C overhead_line_conductor_3;     
      conductor_N overhead_line_conductor_3;     
      spacing line_spacing_20;     
}       

object line_configuration {     
      name line_configuration_49;     
      conductor_B overhead_line_conductor_2;     
      conductor_C overhead_line_conductor_2;     
      conductor_N overhead_line_conductor_2;     
      spacing line_spacing_15;     
}       

object line_spacing {     
      name line_spacing_8;     
      distance_BN 69.99999999996 in;    
}       

object line_spacing {     
      name line_spacing_9;     
      distance_CN 69.99999999996 in;    
}       

object line_spacing {     
      name line_spacing_10;     
      distance_AB 53.19999999996 in;    
      distance_BC 53.19999999996 in;    
      distance_AC 53.19999999996 in;    
      distance_AN 80.49999999996 in;    
      distance_BN 80.49999999996 in;    
      distance_CN 80.49999999996 in;    
}       

object line_spacing {     
      name line_spacing_11;     
      distance_AN 69.99999999996 in;    
}       

object line_spacing {     
      name line_spacing_12;     
      distance_AC 87.99999999996 in;    
      distance_AN 19.2 in;    
      distance_CN 19.2 in;    
}       

object line_spacing {     
      name line_spacing_13;     
      distance_AB 87.99999999996 in;    
      distance_AN 19.2 in;    
      distance_BN 19.2 in;    
}       

object line_spacing {     
      name line_spacing_14;     
      distance_AN 360.0 in;    
}       

object line_spacing {     
      name line_spacing_15;     
      distance_BC 87.99999999996 in;    
      distance_BN 19.2 in;    
      distance_CN 19.2 in;    
}       

object line_spacing {     
      name line_spacing_16;     
      distance_CN 360.0 in;    
}       

object line_spacing {     
      name line_spacing_17;     
      distance_BN 360.0 in;    
}       

object line_spacing {     
      name line_spacing_18;     
      distance_BC 48.0 in;    
      distance_BN 20.79999999996 in;    
      distance_CN 20.79999999996 in;    
}       

object line_spacing {     
      name line_spacing_19;     
      distance_AB 12.0 in;    
      distance_BC 12.0 in;    
      distance_AC 12.0 in;    
      distance_AN 360.0 in;    
      distance_BN 360.0 in;    
      distance_CN 360.0 in;    
}       

object line_spacing {     
      name line_spacing_20;     
      distance_AB 60.50000000004 in;    
      distance_BC 60.50000000004 in;    
      distance_AC 60.50000000004 in;    
      distance_AN 114.99999999996 in;    
      distance_BN 114.99999999996 in;    
      distance_CN 114.99999999996 in;    
}       

object overhead_line_conductor {     
      name overhead_line_conductor_2;     
      //name 4 CU;    
      rating.summer.continuous 149.0;     
      geometric_mean_radius 0.00663 ft;    
      resistance 1.50000;     
}       

object overhead_line_conductor {     
      name overhead_line_conductor_3;     
      //name 123.3 AAAC;    
      rating.summer.continuous 256.0;     
      geometric_mean_radius 0.01200 ft;    
      resistance 0.16600;     
}       

object overhead_line_conductor {     
      name overhead_line_conductor_4;     
      //name 4/0 ACSR;    
      rating.summer.continuous 334.0;     
      geometric_mean_radius 0.00814 ft;    
      resistance 0.56300;     
}       

object overhead_line_conductor {     
      name overhead_line_conductor_5;     
      //name 4/0 AAC;    
      rating.summer.continuous 360.0;     
      geometric_mean_radius 0.01033 ft;    
      resistance 0.47600;     
}       

object overhead_line_conductor {     
      name overhead_line_conductor_6;     
      //name 343 ACSR;    
      rating.summer.continuous 531.0;     
      geometric_mean_radius 0.02240 ft;    
      resistance 0.30600;     
}       

object transformer_configuration {     
      name transformer_configuration_2675;     
      connect_type SINGLE_PHASE_CENTER_TAPPED;     
      install_type POLETOP;     
      primary_voltage 7967.43 V;    
      secondary_voltage 120 V;    
      power_rating 25.0;     
      powerA_rating 25.0;     
      resistance 0.00600;     
      reactance 0.00400;     
      shunt_impedance 339.610+322.788j;     
}       

object transformer_configuration {     
      name transformer_configuration_2676;     
      connect_type SINGLE_PHASE_CENTER_TAPPED;     
      install_type POLETOP;     
      primary_voltage 7967.43 V;    
      secondary_voltage 120 V;    
      power_rating 10.0;     
      powerA_rating 10.0;     
      resistance 0.015;     
      reactance 0.01;     
      shunt_impedance 308.320+322.773j;     
}       

object transformer_configuration {     
      name transformer_configuration_2677;     
      connect_type SINGLE_PHASE_CENTER_TAPPED;     
      install_type POLETOP;     
      primary_voltage 7967.43 V;    
      secondary_voltage 120 V;    
      power_rating 50.0;     
      powerA_rating 50.0;     
      resistance 0.00300;     
      reactance 0.00200;     
      shunt_impedance 391.760+366.010j;     
}       

object transformer_configuration {     
      name transformer_configuration_2678;     
      connect_type SINGLE_PHASE_CENTER_TAPPED;     
      install_type POLETOP;     
      primary_voltage 7967.43 V;    
      secondary_voltage 120 V;    
      power_rating 5;     
      powerA_rating 5;     
      resistance 0.015;     
      reactance 0.01;     
      shunt_impedance 297.890+246.744j;     
}       

object transformer_configuration {     
      name transformer_configuration_2679;     
      connect_type SINGLE_PHASE_CENTER_TAPPED;     
      install_type POLETOP;     
      primary_voltage 7967.43 V;    
      secondary_voltage 120 V;    
      power_rating 15.0;     
      powerA_rating 15.0;     
      resistance 0.01000;     
      reactance 0.00667;     
      shunt_impedance 318.750+365.623j;     
}       

object transformer_configuration {     
      name transformer_configuration_2680;     
      connect_type SINGLE_PHASE_CENTER_TAPPED;     
      install_type POLETOP;     
      primary_voltage 7967.43 V;    
      secondary_voltage 120 V;    
      power_rating 100.0;     
      powerA_rating 100.0;     
      resistance 0.00150;     
      reactance 0.00100;     
      shunt_impedance 496.060+530.493j;     
}       

object transformer_configuration {     
      name transformer_configuration_2681;     
      connect_type SINGLE_PHASE_CENTER_TAPPED;     
      install_type POLETOP;     
      primary_voltage 7967.43 V;    
      secondary_voltage 120 V;    
      power_rating 75.0;     
      powerA_rating 75.0;     
      resistance 0.00200;     
      reactance 0.00133;     
      shunt_impedance 443.910+421.240j;     
}       

object transformer_configuration {     
      name transformer_configuration_2682;     
      connect_type SINGLE_PHASE_CENTER_TAPPED;     
      install_type PADMOUNT;     
      primary_voltage 7967.43 V;    
      secondary_voltage 120 V;    
      power_rating 15.0;     
      powerA_rating 15.0;     
      resistance 0.01000;     
      reactance 0.00667;     
      shunt_impedance 318.750+322.364j;     
}       

object transformer_configuration {     
      name transformer_configuration_2683;     
      connect_type SINGLE_PHASE_CENTER_TAPPED;     
      install_type PADMOUNT;     
      primary_voltage 7967.43 V;    
      secondary_voltage 120 V;    
      power_rating 25.0;     
      powerA_rating 25.0;     
      resistance 0.00600;     
      reactance 0.00400;     
      shunt_impedance 339.610+331.806j;     
}       

object transformer_configuration {     
      name transformer_configuration_2684;     
      connect_type SINGLE_PHASE_CENTER_TAPPED;     
      install_type POLETOP;     
      primary_voltage 7967.43 V;    
      secondary_voltage 120 V;    
      power_rating 37.5;     
      powerA_rating 37.5;     
      resistance 0.00400;     
      reactance 0.00267;     
      shunt_impedance 365.685+312.232j;     
}       

object transformer_configuration {     
      name transformer_configuration_2685;     
      connect_type SINGLE_PHASE_CENTER_TAPPED;     
      install_type PADMOUNT;     
      primary_voltage 7967.43 V;    
      secondary_voltage 120 V;    
      power_rating 5;     
      powerA_rating 5;     
      resistance 0.015;     
      reactance 0.01;     
      shunt_impedance 297.890+212.028j;     
}       

object transformer_configuration {     
      name transformer_configuration_2686;     
      connect_type SINGLE_PHASE_CENTER_TAPPED;     
      install_type PADMOUNT;     
      primary_voltage 7967.43 V;    
      secondary_voltage 120 V;    
      power_rating 50.0;     
      powerA_rating 50.0;     
      resistance 0.00300;     
      reactance 0.00200;     
      shunt_impedance 391.760+389.900j;     
}       

object transformer_configuration {     
      name transformer_configuration_2687;     
      connect_type SINGLE_PHASE_CENTER_TAPPED;     
      install_type POLETOP;     
      primary_voltage 7967.43 V;    
      secondary_voltage 120 V;    
      power_rating 5.0;     
      powerA_rating 5.0;     
      resistance 0.015;     
      reactance 0.01;     
      shunt_impedance 297.890+284.114j;     
}       

object transformer_configuration {     
      name transformer_configuration_2688;     
      connect_type SINGLE_PHASE_CENTER_TAPPED;     
      install_type POLETOP;     
      primary_voltage 7967.43 V;    
      secondary_voltage 120 V;    
      power_rating 5;     
      powerB_rating 5;     
      resistance 0.015;     
      reactance 0.01;     
      shunt_impedance 297.890+280.712j;     
}       

object transformer_configuration {     
      name transformer_configuration_2689;     
      connect_type SINGLE_PHASE_CENTER_TAPPED;     
      install_type POLETOP;     
      primary_voltage 7967.43 V;    
      secondary_voltage 120 V;    
      power_rating 25.0;     
      powerB_rating 25.0;     
      resistance 0.00600;     
      reactance 0.00400;     
      shunt_impedance 339.610+310.880j;     
}       

object transformer_configuration {     
      name transformer_configuration_2690;     
      connect_type SINGLE_PHASE_CENTER_TAPPED;     
      install_type POLETOP;     
      primary_voltage 7967.43 V;    
      secondary_voltage 120 V;    
      power_rating 10.0;     
      powerB_rating 10.0;     
      resistance 0.015;     
      reactance 0.01;     
      shunt_impedance 308.320+252.291j;     
}       

object transformer_configuration {     
      name transformer_configuration_2691;     
      connect_type SINGLE_PHASE_CENTER_TAPPED;     
      install_type POLETOP;     
      primary_voltage 7967.43 V;    
      secondary_voltage 120 V;    
      power_rating 50.0;     
      powerB_rating 50.0;     
      resistance 0.00300;     
      reactance 0.00200;     
      shunt_impedance 391.760+371.321j;     
}       

object transformer_configuration {     
      name transformer_configuration_2692;     
      connect_type SINGLE_PHASE_CENTER_TAPPED;     
      install_type POLETOP;     
      primary_voltage 7967.43 V;    
      secondary_voltage 120 V;    
      power_rating 100.0;     
      powerB_rating 100.0;     
      resistance 0.00150;     
      reactance 0.00100;     
      shunt_impedance 496.060+504.068j;     
}       

object transformer_configuration {     
      name transformer_configuration_2693;     
      connect_type SINGLE_PHASE_CENTER_TAPPED;     
      install_type PADMOUNT;     
      primary_voltage 7967.43 V;    
      secondary_voltage 120 V;    
      power_rating 25.0;     
      powerB_rating 25.0;     
      resistance 0.00600;     
      reactance 0.00400;     
      shunt_impedance 339.610+303.550j;     
}       

object transformer_configuration {     
      name transformer_configuration_2694;     
      connect_type SINGLE_PHASE_CENTER_TAPPED;     
      install_type PADMOUNT;     
      primary_voltage 7967.43 V;    
      secondary_voltage 120 V;    
      power_rating 50.0;     
      powerB_rating 50.0;     
      resistance 0.00300;     
      reactance 0.00200;     
      shunt_impedance 391.760+409.409j;     
}       

object transformer_configuration {     
      name transformer_configuration_2695;     
      connect_type SINGLE_PHASE_CENTER_TAPPED;     
      install_type POLETOP;     
      primary_voltage 7967.43 V;    
      secondary_voltage 120 V;    
      power_rating 15.0;     
      powerB_rating 15.0;     
      resistance 0.01000;     
      reactance 0.00667;     
      shunt_impedance 318.750+310.055j;     
}       

object transformer_configuration {     
      name transformer_configuration_2696;     
      connect_type SINGLE_PHASE_CENTER_TAPPED;     
      install_type PADMOUNT;     
      primary_voltage 7967.43 V;    
      secondary_voltage 120 V;    
      power_rating 15.0;     
      powerB_rating 15.0;     
      resistance 0.01000;     
      reactance 0.00667;     
      shunt_impedance 318.750+315.516j;     
}       

object transformer_configuration {     
      name transformer_configuration_2697;     
      connect_type SINGLE_PHASE_CENTER_TAPPED;     
      install_type PADMOUNT;     
      primary_voltage 7967.43 V;    
      secondary_voltage 120 V;    
      power_rating 100.0;     
      powerB_rating 100.0;     
      resistance 0.00150;     
      reactance 0.00100;     
      shunt_impedance 496.060+425.168j;     
}       

object transformer_configuration {     
      name transformer_configuration_2698;     
      connect_type SINGLE_PHASE_CENTER_TAPPED;     
      install_type POLETOP;     
      primary_voltage 7967.43 V;    
      secondary_voltage 120 V;    
      power_rating 75.0;     
      powerB_rating 75.0;     
      resistance 0.00200;     
      reactance 0.00133;     
      shunt_impedance 443.910+409.977j;     
}       

object transformer_configuration {     
      name transformer_configuration_2699;     
      connect_type SINGLE_PHASE_CENTER_TAPPED;     
      install_type PADMOUNT;     
      primary_voltage 7967.43 V;    
      secondary_voltage 120 V;    
      power_rating 10.0;     
      powerB_rating 10.0;     
      resistance 0.015;     
      reactance 0.01;     
      shunt_impedance 308.320+320.965j;     
}       

object transformer_configuration {     
      name transformer_configuration_2700;     
      connect_type SINGLE_PHASE_CENTER_TAPPED;     
      install_type POLETOP;     
      primary_voltage 7967.43 V;    
      secondary_voltage 120 V;    
      power_rating 5.0;     
      powerB_rating 5.0;     
      resistance 0.015;     
      reactance 0.01;     
      shunt_impedance 297.890+274.359j;     
}       

object transformer_configuration {     
      name transformer_configuration_2701;     
      connect_type SINGLE_PHASE_CENTER_TAPPED;     
      install_type POLETOP;     
      primary_voltage 7967.43 V;    
      secondary_voltage 120 V;    
      power_rating 37.5;     
      powerB_rating 37.5;     
      resistance 0.00400;     
      reactance 0.00267;     
      shunt_impedance 365.685+371.596j;     
}       

object transformer_configuration {     
      name transformer_configuration_2702;     
      connect_type SINGLE_PHASE_CENTER_TAPPED;     
      install_type POLETOP;     
      primary_voltage 7967.43 V;    
      secondary_voltage 120 V;    
      power_rating 87.5;     
      powerB_rating 87.5;     
      resistance 0.00171;     
      reactance 0.00114;     
      shunt_impedance 469.985+562.944j;     
}       

object transformer_configuration {     
      name transformer_configuration_2703;     
      connect_type SINGLE_PHASE_CENTER_TAPPED;     
      install_type POLETOP;     
      primary_voltage 7967.43 V;    
      secondary_voltage 120 V;    
      power_rating 25.0;     
      powerC_rating 25.0;     
      resistance 0.00600;     
      reactance 0.00400;     
      shunt_impedance 339.610+366.618j;     
}       

object transformer_configuration {     
      name transformer_configuration_2704;     
      connect_type SINGLE_PHASE_CENTER_TAPPED;     
      install_type POLETOP;     
      primary_voltage 7967.43 V;    
      secondary_voltage 120 V;    
      power_rating 5;     
      powerC_rating 5;     
      resistance 0.015;     
      reactance 0.01;     
      shunt_impedance 297.890+328.792j;     
}       

object transformer_configuration {     
      name transformer_configuration_2705;     
      connect_type SINGLE_PHASE_CENTER_TAPPED;     
      install_type POLETOP;     
      primary_voltage 7967.43 V;    
      secondary_voltage 120 V;    
      power_rating 10.0;     
      powerC_rating 10.0;     
      resistance 0.015;     
      reactance 0.01;     
      shunt_impedance 308.320+381.094j;     
}       

object transformer_configuration {     
      name transformer_configuration_2706;     
      connect_type SINGLE_PHASE_CENTER_TAPPED;     
      install_type POLETOP;     
      primary_voltage 7967.43 V;    
      secondary_voltage 120 V;    
      power_rating 15.0;     
      powerC_rating 15.0;     
      resistance 0.01000;     
      reactance 0.00667;     
      shunt_impedance 318.750+356.216j;     
}       

object transformer_configuration {     
      name transformer_configuration_2707;     
      connect_type SINGLE_PHASE_CENTER_TAPPED;     
      install_type POLETOP;     
      primary_voltage 7967.43 V;    
      secondary_voltage 120 V;    
      power_rating 5.0;     
      powerC_rating 5.0;     
      resistance 0.015;     
      reactance 0.01;     
      shunt_impedance 297.890+309.738j;     
}       

object transformer_configuration {     
      name transformer_configuration_2708;     
      connect_type SINGLE_PHASE_CENTER_TAPPED;     
      install_type POLETOP;     
      primary_voltage 7967.43 V;    
      secondary_voltage 120 V;    
      power_rating 50.0;     
      powerC_rating 50.0;     
      resistance 0.00300;     
      reactance 0.00200;     
      shunt_impedance 391.760+468.202j;     
}       

object transformer_configuration {     
      name transformer_configuration_2709;     
      connect_type SINGLE_PHASE_CENTER_TAPPED;     
      install_type PADMOUNT;     
      primary_voltage 7967.43 V;    
      secondary_voltage 120 V;    
      power_rating 15.0;     
      powerC_rating 15.0;     
      resistance 0.01000;     
      reactance 0.00667;     
      shunt_impedance 318.750+289.914j;     
}       

object transformer_configuration {     
      name transformer_configuration_2710;     
      connect_type SINGLE_PHASE_CENTER_TAPPED;     
      install_type PADMOUNT;     
      primary_voltage 7967.43 V;    
      secondary_voltage 120 V;    
      power_rating 5;     
      powerC_rating 5;     
      resistance 0.015;     
      reactance 0.01;     
      shunt_impedance 297.890+277.569j;     
}       

object transformer_configuration {     
      name transformer_configuration_2711;     
      connect_type SINGLE_PHASE_CENTER_TAPPED;     
      install_type PADMOUNT;     
      primary_voltage 7967.43 V;    
      secondary_voltage 120 V;    
      power_rating 62.5;     
      powerC_rating 62.5;     
      resistance 0.00240;     
      reactance 0.00160;     
      shunt_impedance 417.835+502.166j;     
}       

object transformer_configuration {     
      name transformer_configuration_2712;     
      connect_type SINGLE_PHASE_CENTER_TAPPED;     
      install_type PADMOUNT;     
      primary_voltage 7967.43 V;    
      secondary_voltage 120 V;    
      power_rating 75.0;     
      powerC_rating 75.0;     
      resistance 0.00200;     
      reactance 0.00133;     
      shunt_impedance 443.910+464.079j;     
}       

object transformer_configuration {     
      name transformer_configuration_2713;     
      connect_type SINGLE_PHASE_CENTER_TAPPED;     
      install_type PADMOUNT;     
      primary_voltage 7967.43 V;    
      secondary_voltage 120 V;    
      power_rating 50.0;     
      powerC_rating 50.0;     
      resistance 0.00300;     
      reactance 0.00200;     
      shunt_impedance 391.760+390.111j;     
}       

object transformer_configuration {     
      name transformer_configuration_2714;     
      connect_type SINGLE_PHASE_CENTER_TAPPED;     
      install_type POLETOP;     
      primary_voltage 7967.43 V;    
      secondary_voltage 120 V;    
      power_rating 75.0;     
      powerC_rating 75.0;     
      resistance 0.00200;     
      reactance 0.00133;     
      shunt_impedance 443.910+464.249j;     
}       

object transformer_configuration {     
      name transformer_configuration_2715;     
      connect_type SINGLE_PHASE_CENTER_TAPPED;     
      install_type PADMOUNT;     
      primary_voltage 7967.43 V;    
      secondary_voltage 120 V;    
      power_rating 5.0;     
      powerC_rating 5.0;     
      resistance 0.015;     
      reactance 0.01;     
      shunt_impedance 297.890+290.021j;     
}       

object transformer_configuration {     
      name transformer_configuration_2716;     
      connect_type SINGLE_PHASE_CENTER_TAPPED;     
      install_type PADMOUNT;     
      primary_voltage 7967.43 V;    
      secondary_voltage 120 V;    
      power_rating 25.0;     
      powerC_rating 25.0;     
      resistance 0.00600;     
      reactance 0.00400;     
      shunt_impedance 339.610+329.694j;     
}       

object transformer_configuration {     
      name transformer_configuration_2717;     
      connect_type SINGLE_PHASE_CENTER_TAPPED;     
      install_type POLETOP;     
      primary_voltage 7967.43 V;    
      secondary_voltage 120 V;    
      power_rating 37.5;     
      powerC_rating 37.5;     
      resistance 0.00400;     
      reactance 0.00267;     
      shunt_impedance 365.685+351.540j;     
}       

object transformer_configuration {     
      name transformer_configuration_3194;     
      connect_type WYE_WYE;     
      install_type POLETOP;     
      primary_voltage 13800.000 V;    
      secondary_voltage 480 V;    
      power_rating 5.0;     
      powerC_rating 5.0;     
      resistance 0.01;     
      reactance 0.05;     
      shunt_impedance 297.890+281.387j;     
}       

object transformer_configuration {     
      name transformer_configuration_3195;     
      connect_type WYE_WYE;     
      install_type POLETOP;     
      primary_voltage 13800.000 V;    
      secondary_voltage 480 V;    
      power_rating 50.0;     
      powerA_rating 25.0;     
      powerB_rating 0.0;     
      powerC_rating 25.0;     
      resistance 0.00200;     
      reactance 0.01000;     
      shunt_impedance 391.760+354.789j;     
}       

object transformer_configuration {     
      name transformer_configuration_3196;     
      connect_type WYE_WYE;     
      install_type POLETOP;     
      primary_voltage 13800.000 V;    
      secondary_voltage 480 V;    
      power_rating 15.0;     
      powerA_rating 15.0;     
      powerB_rating 0.0;     
      powerC_rating 0.0;     
      resistance 0.00667;     
      reactance 0.03333;     
      shunt_impedance 318.750+316.842j;     
}       

object transformer_configuration {     
      name transformer_configuration_3197;     
      connect_type WYE_WYE;     
      install_type POLETOP;     
      primary_voltage 13800.000 V;    
      secondary_voltage 480 V;    
      power_rating 60.0;     
      powerA_rating 50.0;     
      powerB_rating 0.0;     
      powerC_rating 10.0;     
      resistance 0.00167;     
      reactance 0.00833;     
      shunt_impedance 412.620+388.907j;     
}       

object transformer_configuration {     
      name transformer_configuration_3198;     
      connect_type WYE_WYE;     
      install_type POLETOP;     
      primary_voltage 13800.000 V;    
      secondary_voltage 480 V;    
      power_rating 525.0;     
      powerA_rating 175.0;     
      powerB_rating 175.0;     
      powerC_rating 175.0;     
      resistance 0.00019;     
      reactance 0.00095;     
      shunt_impedance 1382.610+1581.962j;     
}       

object transformer_configuration {     
      name transformer_configuration_3199;     
      connect_type WYE_WYE;     
      install_type POLETOP;     
      primary_voltage 13800.000 V;    
      secondary_voltage 480 V;    
      power_rating 50.0;     
      powerA_rating 25.0;     
      powerB_rating 25.0;     
      resistance 0.00200;     
      reactance 0.01000;     
      shunt_impedance 391.760+400.987j;     
}       

object transformer_configuration {     
      name transformer_configuration_3200;     
      connect_type WYE_WYE;     
      install_type POLETOP;     
      primary_voltage 13800.000 V;    
      secondary_voltage 480 V;    
      power_rating 5.0;     
      powerA_rating 0.0;     
      powerB_rating 5.0;     
      powerC_rating 0.0;     
      resistance 0.01;     
      reactance 0.05;     
      shunt_impedance 297.890+328.316j;     
}       

object transformer_configuration {     
      name transformer_configuration_3201;     
      connect_type WYE_WYE;     
      install_type POLETOP;     
      primary_voltage 13800.000 V;    
      secondary_voltage 480 V;    
      power_rating 150.0;     
      powerA_rating 50.0;     
      powerB_rating 50.0;     
      powerC_rating 50.0;     
      resistance 0.00067;     
      reactance 0.00333;     
      shunt_impedance 600.360+591.965j;     
}       

object transformer_configuration {     
      name transformer_configuration_3202;     
      connect_type WYE_WYE;     
      install_type POLETOP;     
      primary_voltage 13800.000 V;    
      secondary_voltage 480 V;    
      power_rating 25.0;     
      powerA_rating 15.0;     
      powerC_rating 10.0;     
      resistance 0.00400;     
      reactance 0.02000;     
      shunt_impedance 339.610+336.840j;     
}       

object transformer_configuration {     
      name transformer_configuration_3203;     
      connect_type WYE_WYE;     
      install_type PADMOUNT;     
      primary_voltage 13800.000 V;    
      secondary_voltage 480 V;    
      power_rating 50.0;     
      powerA_rating 25.0;     
      powerB_rating 25.0;     
      powerC_rating 0.0;     
      resistance 0.00200;     
      reactance 0.01000;     
      shunt_impedance 391.760+441.053j;     
}       

object transformer_configuration {     
      name transformer_configuration_3204;     
      connect_type WYE_WYE;     
      install_type PADMOUNT;     
      primary_voltage 13800.000 V;    
      secondary_voltage 480 V;    
      power_rating 100.0;     
      powerA_rating 50.0;     
      powerC_rating 50.0;     
      resistance 0.00100;     
      reactance 0.00500;     
      shunt_impedance 496.060+568.908j;     
}       

object transformer_configuration {     
      name transformer_configuration_3205;     
      connect_type WYE_WYE;     
      install_type PADMOUNT;     
      primary_voltage 13800.000 V;    
      secondary_voltage 480 V;    
      power_rating 25.0;     
      powerC_rating 25.0;     
      resistance 0.00400;     
      reactance 0.02000;     
      shunt_impedance 339.610+340.729j;     
}       

object transformer_configuration {     
      name transformer_configuration_3206;     
      connect_type WYE_WYE;     
      install_type POLETOP;     
      primary_voltage 13800.000 V;    
      secondary_voltage 480 V;    
      power_rating 10.0;     
      powerB_rating 10.0;     
      resistance 0.01;     
      reactance 0.05;     
      shunt_impedance 308.320+360.502j;     
}       

object transformer_configuration {     
      name transformer_configuration_3207;     
      connect_type WYE_WYE;     
      install_type POLETOP;     
      primary_voltage 13800.000 V;    
      secondary_voltage 480 V;    
      power_rating 25.0;     
      powerA_rating 25.0;     
      resistance 0.00400;     
      reactance 0.02000;     
      shunt_impedance 339.610+355.766j;     
}       

object transformer_configuration {     
      name transformer_configuration_3208;     
      connect_type WYE_WYE;     
      install_type POLETOP;     
      primary_voltage 13800.000 V;    
      secondary_voltage 480 V;    
      power_rating 20.0;     
      powerA_rating 10.0;     
      powerB_rating 10.0;     
      resistance 0.00500;     
      reactance 0.02500;     
      shunt_impedance 329.180+341.311j;     
}       

object transformer_configuration {     
      name transformer_configuration_3209;     
      connect_type WYE_WYE;     
      install_type POLETOP;     
      primary_voltage 13800.000 V;    
      secondary_voltage 480 V;    
      power_rating 50.0;     
      powerA_rating 25.0;     
      powerB_rating 25.0;     
      powerC_rating 0.0;     
      resistance 0.00200;     
      reactance 0.01000;     
      shunt_impedance 391.760+477.634j;     
}       

object transformer_configuration {     
      name transformer_configuration_3210;     
      connect_type WYE_WYE;     
      install_type POLETOP;     
      primary_voltage 13800.000 V;    
      secondary_voltage 480 V;    
      power_rating 112.5;     
      powerA_rating 37.5;     
      powerB_rating 37.5;     
      powerC_rating 37.5;     
      resistance 0.00089;     
      reactance 0.00444;     
      shunt_impedance 522.135+602.318j;     
}       

object transformer_configuration {     
      name transformer_configuration_3211;     
      connect_type WYE_WYE;     
      install_type POLETOP;     
      primary_voltage 13800.000 V;    
      secondary_voltage 480 V;    
      power_rating 150.0;     
      powerB_rating 75.0;     
      powerC_rating 75.0;     
      resistance 0.00067;     
      reactance 0.00333;     
      shunt_impedance 600.360+654.828j;     
}       

object transformer_configuration {     
      name transformer_configuration_3212;     
      connect_type WYE_WYE;     
      install_type POLETOP;     
      primary_voltage 13800.000 V;    
      secondary_voltage 480 V;    
      power_rating 5.0;     
      powerB_rating 0.0;     
      powerC_rating 5.0;     
      resistance 0.01;     
      reactance 0.05;     
      shunt_impedance 297.890+309.873j;     
}       

object transformer_configuration {     
      name transformer_configuration_3213;     
      connect_type WYE_WYE;     
      install_type POLETOP;     
      primary_voltage 13800.000 V;    
      secondary_voltage 480 V;    
      power_rating 50.0;     
      powerB_rating 25.0;     
      powerC_rating 25.0;     
      resistance 0.00200;     
      reactance 0.01000;     
      shunt_impedance 391.760+370.668j;     
}       

object transformer_configuration {     
      name transformer_configuration_3214;     
      connect_type WYE_WYE;     
      install_type POLETOP;     
      primary_voltage 13800.000 V;    
      secondary_voltage 480 V;    
      power_rating 25.0;     
      powerC_rating 25.0;     
      resistance 0.00400;     
      reactance 0.02000;     
      shunt_impedance 339.610+335.697j;     
}       

object transformer_configuration {     
      name transformer_configuration_3215;     
      connect_type WYE_WYE;     
      install_type POLETOP;     
      primary_voltage 13800.000 V;    
      secondary_voltage 480 V;    
      power_rating 10.0;     
      powerC_rating 10.0;     
      resistance 0.01;     
      reactance 0.05;     
      shunt_impedance 308.320+364.496j;     
}       

object transformer_configuration {     
      name transformer_configuration_3216;     
      connect_type WYE_WYE;     
      install_type POLETOP;     
      primary_voltage 13800.000 V;    
      secondary_voltage 480 V;    
      power_rating 75.0;     
      powerB_rating 50.0;     
      powerC_rating 25.0;     
      resistance 0.00133;     
      reactance 0.00667;     
      shunt_impedance 443.910+354.173j;     
}       

object transformer_configuration {     
      name transformer_configuration_3217;     
      connect_type WYE_WYE;     
      install_type POLETOP;     
      primary_voltage 13800.000 V;    
      secondary_voltage 480 V;    
      power_rating 50.0;     
      powerA_rating 25.0;     
      powerC_rating 25.0;     
      resistance 0.00200;     
      reactance 0.01000;     
      shunt_impedance 391.760+366.806j;     
}       

object transformer_configuration {     
      name transformer_configuration_3218;     
      connect_type WYE_WYE;     
      install_type POLETOP;     
      primary_voltage 13800.000 V;    
      secondary_voltage 480 V;    
      power_rating 10.0;     
      powerA_rating 10.0;     
      resistance 0.01;     
      reactance 0.05;     
      shunt_impedance 308.320+302.499j;     
}       

object transformer_configuration {     
      name transformer_configuration_3219;     
      connect_type WYE_WYE;     
      install_type POLETOP;     
      primary_voltage 13800.000 V;    
      secondary_voltage 480 V;    
      power_rating 25.0;     
      powerA_rating 15.0;     
      powerB_rating 10.0;     
      powerC_rating 0.0;     
      resistance 0.00400;     
      reactance 0.02000;     
      shunt_impedance 339.610+344.646j;     
}       

object transformer_configuration {     
      name transformer_configuration_3220;     
      connect_type WYE_WYE;     
      install_type POLETOP;     
      primary_voltage 13800.000 V;    
      secondary_voltage 480 V;    
      power_rating 47.5;     
      powerA_rating 37.5;     
      powerC_rating 10.0;     
      resistance 0.00211;     
      reactance 0.01053;     
      shunt_impedance 386.545+317.590j;     
}       

object transformer_configuration {     
      name transformer_configuration_3221;     
      connect_type WYE_WYE;     
      install_type POLETOP;     
      primary_voltage 13800.000 V;    
      secondary_voltage 480 V;    
      power_rating 25.0;     
      powerA_rating 0.0;     
      powerB_rating 0.0;     
      powerC_rating 25.0;     
      resistance 0.00400;     
      reactance 0.02000;     
      shunt_impedance 339.610+357.578j;     
}       

object transformer_configuration {     
      name transformer_configuration_3222;     
      connect_type WYE_WYE;     
      install_type POLETOP;     
      primary_voltage 13800.000 V;    
      secondary_voltage 480 V;    
      power_rating 10.0;     
      powerA_rating 0.0;     
      powerB_rating 0.0;     
      powerC_rating 10.0;     
      resistance 0.01;     
      reactance 0.05;     
      shunt_impedance 308.320+330.819j;     
}       

object transformer_configuration {     
      name transformer_configuration_3223;     
      connect_type WYE_WYE;     
      install_type POLETOP;     
      primary_voltage 13800.000 V;    
      secondary_voltage 480 V;    
      power_rating 187.5;     
      powerA_rating 50.0;     
      powerB_rating 87.5;     
      powerC_rating 50.0;     
      resistance 0.00053;     
      reactance 0.00267;     
      shunt_impedance 678.585+614.789j;     
}       

object transformer_configuration {     
      name transformer_configuration_3224;     
      connect_type WYE_WYE;     
      install_type POLETOP;     
      primary_voltage 13800.000 V;    
      secondary_voltage 480 V;    
      power_rating 35.0;     
      powerA_rating 25.0;     
      powerB_rating 10.0;     
      powerC_rating 0.0;     
      resistance 0.00286;     
      reactance 0.01429;     
      shunt_impedance 360.470+351.123j;     
}       

object transformer_configuration {     
      name transformer_configuration_3225;     
      connect_type WYE_WYE;     
      install_type POLETOP;     
      primary_voltage 13800.000 V;    
      secondary_voltage 480 V;    
      power_rating 35.0;     
      powerB_rating 25.0;     
      powerC_rating 10.0;     
      resistance 0.00286;     
      reactance 0.01429;     
      shunt_impedance 360.470+316.725j;     
}       

object transformer_configuration {     
      name transformer_configuration_3226;     
      connect_type WYE_WYE;     
      install_type POLETOP;     
      primary_voltage 13800.000 V;    
      secondary_voltage 480 V;    
      power_rating 35.0;     
      powerA_rating 25.0;     
      powerB_rating 10.0;     
      resistance 0.00286;     
      reactance 0.01429;     
      shunt_impedance 360.470+419.030j;     
}       

object transformer_configuration {     
      name transformer_configuration_3227;     
      connect_type WYE_WYE;     
      install_type POLETOP;     
      primary_voltage 13800.000 V;    
      secondary_voltage 480 V;    
      power_rating 5.0;     
      powerA_rating 0.0;     
      powerB_rating 0.0;     
      powerC_rating 5.0;     
      resistance 0.01;     
      reactance 0.05;     
      shunt_impedance 297.890+309.017j;     
}       

object transformer_configuration {     
      name transformer_configuration_3228;     
      connect_type WYE_WYE;     
      install_type POLETOP;     
      primary_voltage 13800.000 V;    
      secondary_voltage 480 V;    
      power_rating 20.0;     
      powerA_rating 0.0;     
      powerB_rating 10.0;     
      powerC_rating 10.0;     
      resistance 0.00500;     
      reactance 0.02500;     
      shunt_impedance 329.180+320.921j;     
}       

object transformer_configuration {     
      name transformer_configuration_3229;     
      connect_type WYE_WYE;     
      install_type POLETOP;     
      primary_voltage 13800.000 V;    
      secondary_voltage 480 V;    
      power_rating 15.0;     
      powerB_rating 15.0;     
      resistance 0.00667;     
      reactance 0.03333;     
      shunt_impedance 318.750+289.251j;     
}       

object transformer_configuration {     
      name transformer_configuration_3230;     
      connect_type WYE_WYE;     
      install_type POLETOP;     
      primary_voltage 13800.000 V;    
      secondary_voltage 480 V;    
      power_rating 25.0;     
      powerB_rating 25.0;     
      resistance 0.00400;     
      reactance 0.02000;     
      shunt_impedance 339.610+342.961j;     
}       

object transformer_configuration {     
      name transformer_configuration_3231;     
      connect_type WYE_WYE;     
      install_type POLETOP;     
      primary_voltage 13800.000 V;    
      secondary_voltage 480 V;    
      power_rating 5.0;     
      powerA_rating 5.0;     
      resistance 0.01;     
      reactance 0.05;     
      shunt_impedance 297.890+348.063j;     
}       

object transformer_configuration {     
      name transformer_configuration_3232;     
      connect_type WYE_WYE;     
      install_type POLETOP;     
      primary_voltage 13800.000 V;    
      secondary_voltage 480 V;    
      power_rating 15.0;     
      powerC_rating 15.0;     
      resistance 0.00667;     
      reactance 0.03333;     
      shunt_impedance 318.750+327.524j;     
}       

object transformer_configuration {     
      name transformer_configuration_3233;     
      connect_type WYE_WYE;     
      install_type POLETOP;     
      primary_voltage 13800.000 V;    
      secondary_voltage 480 V;    
      power_rating 50.0;     
      powerB_rating 50.0;     
      resistance 0.00200;     
      reactance 0.01000;     
      shunt_impedance 391.760+405.600j;     
}       

object transformer_configuration {     
      name transformer_configuration_3234;     
      connect_type WYE_WYE;     
      install_type POLETOP;     
      primary_voltage 13800.000 V;    
      secondary_voltage 480 V;    
      power_rating 10.0;     
      powerA_rating 0.0;     
      powerB_rating 10.0;     
      powerC_rating 0.0;     
      resistance 0.01;     
      reactance 0.05;     
      shunt_impedance 308.320+271.310j;     
}       

object transformer_configuration {     
      name transformer_configuration_3235;     
      connect_type WYE_WYE;     
      install_type POLETOP;     
      primary_voltage 13800.000 V;    
      secondary_voltage 480 V;    
      power_rating 15.0;     
      powerA_rating 15.0;     
      resistance 0.00667;     
      reactance 0.03333;     
      shunt_impedance 318.750+324.045j;     
}       

object transformer_configuration {     
      name transformer_configuration_3236;     
      connect_type WYE_WYE;     
      install_type PADMOUNT;     
      primary_voltage 13800.000 V;    
      secondary_voltage 480 V;    
      power_rating 5.0;     
      powerC_rating 5.0;     
      resistance 0.01;     
      reactance 0.05;     
      shunt_impedance 297.890+321.011j;     
}       

object triplex_line_conductor {     
      name triplex_4/0 AA;    
      resistance 0.48;     
      geometric_mean_radius 0.0158;     
}       

object triplex_line_configuration {     
      name triplex_line_configuration_1;     
      conductor_1 triplex_4/0 AA;    
      conductor_2 triplex_4/0 AA;    
      conductor_N triplex_4/0 AA;    
      insulation_thickness 0.08;     
      diameter 0.522;     
}       

object underground_line_conductor {     
      name underground_line_conductor_7;     
      //name 2 AL (Conc);   
      rating.summer.continuous 112.0;     
      outer_diameter 1.09;     
      conductor_gmr 0.0088 ft;    
      conductor_diameter 0.292;     
      conductor_resistance 1.38336;     
      neutral_gmr 0.0348162687755351 ft;    
      neutral_resistance 13.5696;     
      neutral_diameter 0.0641;     
      neutral_strands 6.0;     
      shield_gmr 0.00;     
      shield_resistance 0.00;     
}       

object transformer_configuration {
     name trans_config_to_feeder;
     connect_type WYE_WYE;
     install_type PADMOUNT;
     primary_voltage 230000;
     secondary_voltage 13800.000;
     power_rating 6.4 MVA;
     impedance 0.00033+0.0022j;
}

//Start actual feeder

object meter {
     name network_node;
     bustype SWING;
     nominal_voltage 230000;
     object player {
          property voltage_A;
          loop 100;
          file V_A.player;
     };
     object player {
          property voltage_B;
          loop 100;
          file V_B.player;
     };
     object player {
          property voltage_C;
          loop 100;
          file V_C.player;
     };
     phases ABCN;
}

object transformer {
     name substation_transformer;
     from network_node;
     to R4-12-47-1_node_572;
     phases ABCN;
     configuration trans_config_to_feeder;
}

        
object regulator {     
      name R4-12-47-1_reg_1;     
      from R4-12-47-1_node_572;     
      to R4-12-47-1_meter_76;     
      phases ABCN;     
      configuration feeder_reg_cfg;     
}       
object capacitor {     
      name R4-12-47-1_cap_1;     
      phases ABCN;     
      pt_phase B;     
      parent R4-12-47-1_node_532;     
      phases_connected ABC;     
      control MANUAL;     
      switchA CLOSED;     
      switchB CLOSED;     
      switchC CLOSED;     
      voltage_set_high 7300;     
      voltage_set_low 7100;     
      capacitor_A 0.1 MVAr;    
      capacitor_B 0.1 MVAr;    
      capacitor_C 0.1 MVAr;    
      control_level INDIVIDUAL;     
      time_delay 30.0;     
      dwell_time 30.0;     
      cap_nominal_voltage 7970;     
      nominal_voltage 7967.43;     
}       
object capacitor {     
      name R4-12-47-1_cap_2;     
      phases ABCN;     
      pt_phase B;     
      parent R4-12-47-1_node_533;     
      phases_connected ABC;     
      control VOLT;     
      voltage_set_high 7300;     
      voltage_set_low 7100;     
      capacitor_A 0.3 MVAr;    
      capacitor_B 0.3 MVAr;    
      capacitor_C 0.3 MVAr;    
      control_level INDIVIDUAL;     
      time_delay 30.0;     
      dwell_time 30.0;     
      cap_nominal_voltage 7970;     
      nominal_voltage 7967.43;     
}       
object capacitor {     
      name R4-12-47-1_cap_3;     
      phases BCN;     
      pt_phase C;     
      parent R4-12-47-1_node_198;     
      phases_connected BC;     
      control MANUAL;     
      capacitor_A 0.15 MVAr;    
      capacitor_B 0.15 MVAr;    
      capacitor_C 0.15 MVAr;    
      control_level INDIVIDUAL;     
      time_delay 30.0;     
      dwell_time 30.0;     
      cap_nominal_voltage 7970;     
      nominal_voltage 7967.43;     
      switchA CLOSED;     
      switchB CLOSED;     
      switchC CLOSED;     
}       
object capacitor {     
      name R4-12-47-1_cap_4;     
      phases CN;     
      pt_phase C;     
      parent R4-12-47-1_node_213;     
      phases_connected C;     
      control MANUAL;     
      capacitor_A 0.15 MVAr;    
      capacitor_B 0.15 MVAr;    
      capacitor_C 0.15 MVAr;    
      control_level INDIVIDUAL;     
      time_delay 30.0;     
      dwell_time 30.0;     
      cap_nominal_voltage 7970;     
      nominal_voltage 7967.43;     
      switchA CLOSED;     
      switchB CLOSED;     
      switchC CLOSED;     
}       
object capacitor {     
      name R4-12-47-1_cap_5;     
      phases CN;     
      pt_phase C;     
      parent R4-12-47-1_node_403;     
      phases_connected C;     
      control MANUAL;     
      capacitor_A 0.05 MVAr;    
      capacitor_B 0.05 MVAr;    
      capacitor_C 0.05 MVAr;    
      control_level INDIVIDUAL;     
      time_delay 30.0;     
      dwell_time 30.0;     
      cap_nominal_voltage 7970;     
      nominal_voltage 7967.43;     
      switchA CLOSED;     
      switchB CLOSED;     
      switchC CLOSED;     
}       
object capacitor {     
      name R4-12-47-1_cap_6;     
      phases ABCN;     
      pt_phase C;     
      parent R4-12-47-1_node_404;     
      phases_connected ABC;     
      control MANUAL;     
      capacitor_A 0.05 MVAr;    
      capacitor_B 0.05 MVAr;    
      capacitor_C 0.05 MVAr;    
      control_level INDIVIDUAL;     
      time_delay 30.0;     
      dwell_time 30.0;     
      cap_nominal_voltage 7970;     
      nominal_voltage 7967.43;     
      switchA CLOSED;     
      switchB CLOSED;     
      switchC CLOSED;     
}       
object fuse {     
      name R4-12-47-1_fuse_1;     
      phases CN;     
      from R4-12-47-1_node_515;     
      to R4-12-47-1_node_2;     
      current_limit 50000;// 100;    
      status CLOSED;     
}       
object fuse {     
      name R4-12-47-1_fuse_2;     
      phases CN;     
      from R4-12-47-1_node_7;     
      to R4-12-47-1_node_6;     
      current_limit 50000;// 100;    
      status CLOSED;     
}       
object fuse {     
      name R4-12-47-1_fuse_3;     
      phases CN;     
      from R4-12-47-1_node_499;     
      to R4-12-47-1_node_29;     
      current_limit 50000;// 40;    
      status CLOSED;     
}       
object fuse {     
      name R4-12-47-1_fuse_4;     
      phases ABCN;     
      from R4-12-47-1_node_40;     
      to R4-12-47-1_node_39;     
      current_limit 50000;// 100;    
      status CLOSED;     
}       
object fuse {     
      name R4-12-47-1_fuse_5;     
      phases AN;     
      from R4-12-47-1_node_49;     
      to R4-12-47-1_node_54;     
      current_limit 50000;// 60;    
      status CLOSED;     
}       
object fuse {     
      name R4-12-47-1_fuse_6;     
      phases AN;     
      from R4-12-47-1_node_55;     
      to R4-12-47-1_node_60;     
      current_limit 50000;// 60;    
      status CLOSED;     
}       
object fuse {     
      name R4-12-47-1_fuse_7;     
      phases BN;     
      from R4-12-47-1_node_62;     
      to R4-12-47-1_node_63;     
      current_limit 50000;// 60;    
      status CLOSED;     
}       
object fuse {     
      name R4-12-47-1_fuse_8;     
      phases CN;     
      from R4-12-47-1_node_56;     
      to R4-12-47-1_node_64;     
      current_limit 50000;// 60;    
      status CLOSED;     
}       
object fuse {     
      name R4-12-47-1_fuse_9;     
      phases CN;     
      from R4-12-47-1_node_71;     
      to R4-12-47-1_node_72;     
      current_limit 50000;// 40;    
      status CLOSED;     
}       
object fuse {     
      name R4-12-47-1_fuse_10;     
      phases BN;     
      from R4-12-47-1_node_78;     
      to R4-12-47-1_node_77;     
      current_limit 50000;// 60;    
      status CLOSED;     
}       
object fuse {     
      name R4-12-47-1_fuse_11;     
      phases ACN;     
      from R4-12-47-1_node_510;     
      to R4-12-47-1_node_85;     
      current_limit 50000;// 40;    
      status CLOSED;     
}       
object fuse {     
      name R4-12-47-1_fuse_12;     
      phases BN;     
      from R4-12-47-1_node_89;     
      to R4-12-47-1_node_88;     
      current_limit 50000;// 30;    
      status CLOSED;     
}       
object fuse {     
      name R4-12-47-1_fuse_13;     
      phases BN;     
      from R4-12-47-1_node_105;     
      to R4-12-47-1_node_92;     
      current_limit 50000;// 40;    
      status CLOSED;     
}       
object fuse {     
      name R4-12-47-1_fuse_14;     
      phases CN;     
      from R4-12-47-1_node_111;     
      to R4-12-47-1_node_112;     
      current_limit 50000;// 40;    
      status CLOSED;     
}       
object fuse {     
      name R4-12-47-1_fuse_15;     
      phases BN;     
      from R4-12-47-1_node_115;     
      to R4-12-47-1_node_116;     
      current_limit 50000;// 15;    
      status CLOSED;     
}       
object fuse {     
      name R4-12-47-1_fuse_16;     
      phases BN;     
      from R4-12-47-1_node_119;     
      to R4-12-47-1_node_120;     
      current_limit 50000;// 50;    
      status CLOSED;     
}       
object fuse {     
      name R4-12-47-1_fuse_17;     
      phases ACN;     
      from R4-12-47-1_node_494;     
      to R4-12-47-1_node_122;     
      current_limit 50000;// 40;    
      status CLOSED;     
}       
object fuse {     
      name R4-12-47-1_fuse_18;     
      phases AN;     
      from R4-12-47-1_node_127;     
      to R4-12-47-1_node_128;     
      current_limit 50000;// 60;    
      status CLOSED;     
}       
object fuse {     
      name R4-12-47-1_fuse_19;     
      phases AN;     
      from R4-12-47-1_node_41;     
      to R4-12-47-1_node_129;     
      current_limit 50000;// 60;    
      status CLOSED;     
}       
object fuse {     
      name R4-12-47-1_fuse_20;     
      phases CN;     
      from R4-12-47-1_node_504;     
      to R4-12-47-1_node_133;     
      current_limit 50000;// 15;    
      status CLOSED;     
}       
object fuse {     
      name R4-12-47-1_fuse_21;     
      phases BN;     
      from R4-12-47-1_node_560;     
      to R4-12-47-1_node_140;     
      current_limit 50000;// 60;    
      status CLOSED;     
}       
object fuse {     
...